# ------------------------------------------------------------------------------------------
# Impression du contenu du fichier de commandes à exécuter :
# ------------------------------------------------------------------------------------------
DEBUT()


mesh = LIRE_MAILLAGE(FORMAT='MED', UNITE=20)

model = AFFE_MODELE(
    AFFE=_F(MODELISATION=('POU_D_T', ), PHENOMENE='MECANIQUE', TOUT='OUI'),
    MAILLAGE=mesh
)

section = AFFE_CARA_ELEM(
    MODELE=model,
    POUTRE=_F(
        CARA=('R', ), GROUP_MA=('bar', ), SECTION='CERCLE', VALE=(25.0, )
    )
)

steel = DEFI_MATERIAU(ELAS=_F(E=2100000.0, NU=0.3))

fieldmat = AFFE_MATERIAU(
    AFFE=_F(MATER=(steel, ), TOUT='OUI'), MAILLAGE=mesh, MODELE=model
)

load = AFFE_CHAR_MECA(
    DDL_IMPO=_F(GROUP_NO=('fix', ), LIAISON='ENCASTRE'),
    FORCE_NODALE=_F(FX=100000.0, GROUP_NO=('load', )),
    MODELE=model
)

reslin = MECA_STATIQUE(
    CARA_ELEM=section,
    CHAM_MATER=fieldmat,
    EXCIT=_F(CHARGE=load),
    MODELE=model,
    OPTION='SIEF_ELGA'
)

result = CALC_CHAMP(
    CARA_ELEM=section,
    CHAM_MATER=fieldmat,
    CONTRAINTE=('SIPO_NOEU', ),
    MODELE=model,
    RESULTAT=reslin,
    TOUT_ORDRE='OUI'
)

IMPR_RESU(
    FORMAT='MED',
    RESU=(
        _F(MAILLAGE=mesh, RESULTAT=result), _F(MAILLAGE=mesh, RESULTAT=reslin)
    ),
    UNITE=80
)

FIN()
# ------------------------------------------------------------------------------------------

  Ouverture en écriture du fichier ./vola.1
                                                                                
                                                                                
              -- CODE_ASTER -- VERSION : EXPLOITATION (stable) --               
                                                                                
                     Version 13.4.0 modifiée le 24/10/2017                      
                     révision d3b9d70df6c4 - branche 'v13'                      
                         Copyright EDF R&D 1991 - 2019                          
                                                                                
                    Exécution du : Mon Mar 11 14:13:17 2019                     
                       Nom de la machine : INPUNHADHPCSRV                       
                              Architecture : 64bit                              
                          Type de processeur : x86_64                           
Système d'exploitation : Linux Red Hat Enterprise Linux Server 7.6 Maipo 3.10.0-957.5.1.el7.x86_64
                        Langue des messages : en (UTF-8)                        
                                                                                
                           Version de Python : 2.7.10                           
                            Version de NumPy : 1.9.2                            
                           Parallélisme MPI : inactif                           
                          Parallélisme OpenMP : actif                           
                       Nombre de processus utilisés : 32                        
                     Version de la librairie HDF5 : 1.8.14                      
                      Version de la librairie MED : 3.2.1                       
                     Version de la librairie MFront : 3.0.0                     
                     Version de la librairie MUMPS : 5.1.1                      
                        Librairie PETSc : non disponible                        
                     Version de la librairie SCOTCH : 6.0.4                     

                  Mémoire limite pour l'exécution : 2048.00 Mo                  
                  consommée par l'initialisation : 1623.61 Mo                   
                  par les objets du jeu de commandes : 1.96 Mo                  
                 reste pour l'allocation dynamique : 422.30 Mo                  
                Taille limite des fichiers d'échange : 12.00 Go                 
                                                                                

  # ------------------------------------------------------------------------------------------
  # Commande No :  0001            Concept de type : -
  # ------------------------------------------------------------------------------------------
  DEBUT(INFO=1,
        PAR_LOT='OUI',
        IMPR_MACRO='NON',
        DEBUG=_F(JEVEUX='NON',
                 JXVERI='NON',
                 HIST_ETAPE='NON',
                 SDVERI='NON',),
        MEMOIRE=_F(TAILLE_BLOC=800.0,
                   TAILLE_GROUP_ELEM=1000,),
        RESERVE_CPU=_F(BORNE=900,),
        MESURE_TEMPS=_F(MOYENNE='NON',
                        NIVE_DETAIL=1,),
        )


  Valeur initiale du temps CPU maximum =   900 secondes
  Valeur du temps CPU maximum passé aux commandes =   810 secondes
  Réserve CPU prévue = 90 secondes

  Ouverture en écriture du fichier ./glob.1

  Ouverture en écriture du fichier ./vola.1

  Ouverture en lecture du fichier /INSTALLABLES/salome_meca-2017/V2017.0.2/tools/Code_aster_stable-v134_smeca/lib/aster/elem.1

     Nom de la base                          :  ELEMBASE
     Créée avec la version                   :  13.04.00
     Nombre d'enregistrements utilisés       :  44
     Nombre d'enregistrements maximum        :  512
     Longueur d'enregistrement (octets)      :  819200
     Nombre d'identificateurs utilisés       :  123
     Taille maximum du répertoire            :  300
     Pourcentage d'utilisation du répertoire :  41 %

  Ouverture en lecture du fichier /INSTALLABLES/salome_meca-2017/V2017.0.2/tools/Code_aster_stable-v134_smeca/lib/aster/elem.1


     Nom de la base                          :  ELEMBASE
     Nombre d'enregistrements utilisés       :  44
     Nombre d'enregistrements maximum        :  512
     Longueur d'enregistrement (octets)      :  819200
     Nombre total d'accès en lecture         :  62
     Volume des accès en lecture             :         48.44 Mo.
     Nombre total d'accès en écriture        :  0
     Volume des accès en écriture            :          0.00 Mo.
     Nombre d'identificateurs utilisés       :  123
     Taille maximum du répertoire            :  300
     Pourcentage d'utilisation du répertoire :  41 %

  Relecture des catalogues des éléments faite.

  Fin de lecture (durée  0.062277  s.) 
  # Mémoire (Mo) :  1670.86 /  1663.04 /    44.66 /    23.16 (VmPeak / VmSize / Optimum / Minimum)
  # Fin commande No : 0001   user+syst:        0.11s (syst:        0.08s, elaps:        0.10s)
  # ------------------------------------------------------------------------------------------

  # ------------------------------------------------------------------------------------------
  # Commande No :  0002            Concept de type : maillage_sdaster
  # ------------------------------------------------------------------------------------------
  mesh = LIRE_MAILLAGE(UNITE=20,
                       FORMAT='MED',
                       INFO_MED=1,
                       INFO=1,
                       VERI_MAIL=_F(APLAT=1.E-3,
                                    VERIF='OUI',),
                       )

Vérification du maillage.

------------ MAILLAGE mesh     - IMPRESSIONS NIVEAU  1 ------------

LU-11-MARS-2019 14:13:17                                                        

NOMBRE DE NOEUDS                          36

NOMBRE DE MAILLES                         35
                              SEG2                   35

NOMBRE DE GROUPES DE NOEUDS                2
                              fix                                  1
                              load                                 1

NOMBRE DE GROUPES DE MAILLES               1
                              bar                                 35

--------------------------------------------------------------------------------

  # Mémoire (Mo) :  1670.86 /  1663.71 /    44.66 /    23.16 (VmPeak / VmSize / Optimum / Minimum)
  # Fin commande No : 0002   user+syst:        0.01s (syst:        0.00s, elaps:        0.02s)
  # ------------------------------------------------------------------------------------------

  # ------------------------------------------------------------------------------------------
  # Commande No :  0003            Concept de type : modele_sdaster
  # ------------------------------------------------------------------------------------------
  model = AFFE_MODELE(MAILLAGE=mesh,
                      AFFE=_F(PHENOMENE='MECANIQUE',
                              TOUT='OUI',
                              MODELISATION=('POU_D_T', ),),
                      INFO=1,
                      VERI_JACOBIEN='OUI',
                      DISTRIBUTION=_F(PARTITIONNEUR='METIS',
                                      METHODE='SOUS_DOMAINE',),
                      )


Sur les 35 mailles du maillage mesh, on a demandé l'affectation de 35, on a pu en affecter 35
 Modélisation     Type maille  Élément fini     Nombre
 POU_D_T          SEG2         MECA_POU_D_T     35
#2      Calculs elementaires et assemblages               CPU (USER+SYST/SYST/ELAPS):      0.03      0.03      0.00
  # Mémoire (Mo) :  1913.18 /  1913.18 /    44.66 /    33.91 (VmPeak / VmSize / Optimum / Minimum)
  # Fin commande No : 0003   user+syst:        0.25s (syst:        0.20s, elaps:        0.01s)
  # ------------------------------------------------------------------------------------------

  # ------------------------------------------------------------------------------------------
  # Commande No :  0004            Concept de type : cara_elem
  # ------------------------------------------------------------------------------------------
  section = AFFE_CARA_ELEM(MODELE=model,
                           POUTRE=_F(SECTION='CERCLE',
                                     GROUP_MA=('bar', ),
                                     CARA=('R', ),
                                     VALE=(25.0, ),
                                     TUYAU_NSEC=16,
                                     TUYAU_NCOU=3,
                                     MODI_METRIQUE='NON',
                                     VARI_SECT='CONSTANT',),
                           INFO=1,)


     LE MODELE model    CONTIENT : 
                                       35 ELEMENT(S) POUTRE          
#2      Calculs elementaires et assemblages               CPU (USER+SYST/SYST/ELAPS):      0.03      0.02      0.00
  # Mémoire (Mo) :  1913.99 /  1913.97 /    44.66 /    33.91 (VmPeak / VmSize / Optimum / Minimum)
  # Fin commande No : 0004   user+syst:        0.78s (syst:        0.59s, elaps:        0.03s)
  # ------------------------------------------------------------------------------------------

  # ------------------------------------------------------------------------------------------
  # Commande No :  0006            Concept de type : mater_sdaster
  # ------------------------------------------------------------------------------------------
  steel = DEFI_MATERIAU(ELAS=_F(E=2.100000E6,
                                NU=0.3,
                                COEF_AMOR=1.0,),
                        INFO=1,)


 MATERIAU : steel   
 RELATION DE COMPORTEMENT: ELAS                            


  # Mémoire (Mo) :  1913.99 /  1913.97 /    44.66 /    33.91 (VmPeak / VmSize / Optimum / Minimum)
  # Fin commande No : 0006   user+syst:        0.17s (syst:        0.13s, elaps:        0.00s)
  # ------------------------------------------------------------------------------------------

  # ------------------------------------------------------------------------------------------
  # Commande No :  0007            Concept de type : cham_mater
  # ------------------------------------------------------------------------------------------
  fieldmat = AFFE_MATERIAU(MAILLAGE=mesh,
                           MODELE=model,
                           AFFE=_F(MATER=(steel, ),
                                   TOUT='OUI',),
                           INFO=1,
                           )

  # Mémoire (Mo) :  1913.99 /  1913.97 /    44.66 /    33.91 (VmPeak / VmSize / Optimum / Minimum)
  # Fin commande No : 0007   user+syst:        0.51s (syst:        0.38s, elaps:        0.02s)
  # ------------------------------------------------------------------------------------------

  # ------------------------------------------------------------------------------------------
  # Commande No :  0008            Concept de type : char_meca
  # ------------------------------------------------------------------------------------------
  load = AFFE_CHAR_MECA(MODELE=model,
                        DDL_IMPO=_F(LIAISON='ENCASTRE',
                                    GROUP_NO=('fix', ),),
                        FORCE_NODALE=_F(FX=1.E5,
                                        GROUP_NO=('load', ),),
                        INFO=1,
                        VERI_NORM='OUI',)

  # Mémoire (Mo) :  1914.12 /  1913.97 /    44.66 /    33.91 (VmPeak / VmSize / Optimum / Minimum)
  # Fin commande No : 0008   user+syst:        0.42s (syst:        0.33s, elaps:        0.01s)
  # ------------------------------------------------------------------------------------------

  # ------------------------------------------------------------------------------------------
  # Commande No :  0009            Concept de type : evol_elas
  # ------------------------------------------------------------------------------------------
  reslin = MECA_STATIQUE(OPTION='SIEF_ELGA',
                         CARA_ELEM=section,
                         CHAM_MATER=fieldmat,
                         MODELE=model,
                         EXCIT=_F(CHARGE=load,
                                  TYPE_CHARGE='FIXE_CSTE',),
                         INFO=1,
                         SOLVEUR=_F(RENUM='METIS',
                                    STOP_SINGULIER='OUI',
                                    ELIM_LAGR='NON',
                                    NPREC=8,
                                    METHODE='MULT_FRONT',),
                         )


Le système linéaire à résoudre a 228 degrés de liberté:
   - 216 sont des degrés de liberté physiques
     (ils sont portés par 36 noeuds du maillage)
   - 12 sont les couples de paramètres de Lagrange associés
     aux 6 relations linéaires dualisées.

La matrice est de taille 228 équations.
Elle contient 2106 termes non nuls si elle est symétrique et 3984 termes non nuls si elle n'est pas symétrique.
Soit un taux de remplissage de   7.664 %.
   CHAMP STOCKE :             DEPL INSTANT :  0.00000E+00  NUMERO D'ORDRE :     1
#1      Resolution des systemes lineaires                 CPU (USER+SYST/SYST/ELAPS):      1.68      0.89      0.04
#2      Calculs elementaires et assemblages               CPU (USER+SYST/SYST/ELAPS):      0.19      0.13      0.01
  # Mémoire (Mo) :  2170.86 /  2165.78 /    44.66 /    33.91 (VmPeak / VmSize / Optimum / Minimum)
  # Fin commande No : 0009   user+syst:        2.37s (syst:        1.41s, elaps:        0.07s)
  # ------------------------------------------------------------------------------------------

  # ------------------------------------------------------------------------------------------
  # Commande No :  0010            Concept de type : evol_elas
  # ------------------------------------------------------------------------------------------
  result = CALC_CHAMP(CARA_ELEM=section,
                      CHAM_MATER=fieldmat,
                      RESULTAT=reslin,
                      TOUT_ORDRE='OUI',
                      MODELE=model,
                      PRECISION=1.E-06,
                      CONTRAINTE=('SIPO_NOEU', ),
                      INFO=1,
                      CRITERE='RELATIF',)

#2      Calculs elementaires et assemblages               CPU (USER+SYST/SYST/ELAPS):      0.01      0.00      0.00
  # Mémoire (Mo) :  2170.86 /  2165.78 /    44.66 /    34.07 (VmPeak / VmSize / Optimum / Minimum)
  # Fin commande No : 0010   user+syst:        0.03s (syst:        0.01s, elaps:        0.01s)
  # ------------------------------------------------------------------------------------------

  # ------------------------------------------------------------------------------------------
  # Commande No :  0011            Concept de type : -
  # ------------------------------------------------------------------------------------------
  IMPR_RESU(FORMAT='MED',
            RESU=(_F(RESULTAT=result,
                     MAILLAGE=mesh,
                     INFO_MAILLAGE='NON',
                     IMPR_NOM_VARI='OUI',),
                  _F(RESULTAT=reslin,
                     MAILLAGE=mesh,
                     INFO_MAILLAGE='NON',
                     IMPR_NOM_VARI='OUI',),
                  ),
            UNITE=80,
            INFO=1,
            PROC0='OUI',)

   
   !---------------------------------------------------------------------!
   ! <A> <MED_67>                                                        !
   !                                                                     !
   !   -> Le maillage mesh est déjà présent dans le fichier MED fort.80. !
   !                                                                     !
   !                                                                     !
   ! Ceci est une alarme. Si vous ne comprenez pas le sens de cette      !
   ! alarme, vous pouvez obtenir des résultats inattendus !              !
   !---------------------------------------------------------------------!
   
  # Mémoire (Mo) :  2170.86 /  2165.78 /    44.66 /    34.07 (VmPeak / VmSize / Optimum / Minimum)
  # Fin commande No : 0011   user+syst:        0.54s (syst:        0.37s, elaps:        0.05s)
  # ------------------------------------------------------------------------------------------

  # ------------------------------------------------------------------------------------------
  # Commande No :  0012            Concept de type : -
  # ------------------------------------------------------------------------------------------
  FIN(INFO_RESU='OUI',
      RETASSAGE='NON',
      FORMAT_HDF='NON',
      PROC0='OUI',)

   
   !-------------------------------------------------------------------------!
   ! <I> <CATAMESS_89>                                                       !
   !                                                                         !
   !     Liste des alarmes émises lors de l'exécution du calcul.             !
   !                                                                         !
   !     Les alarmes que vous avez choisies d'ignorer sont précédées de (*). !
   !     Nombre d'occurrences pour chacune des alarmes :                     !
   !            MED_67               émise    1 fois                         !
   !-------------------------------------------------------------------------!
   

 ======>

 STRUCTURE DU CONCEPT reslin   CALCULE POUR 1 NUMERO D'ORDRE

 LISTE DES NOMS SYMBOLIQUES:
 ! ---------- !----------------!----------------!
 ! NUME_ORDRE !      DEPL      !   SIEF_ELGA    !
 ! ---------- !----------------!----------------!
 !          1 !     DEPL_R     !     SIEF_R     !
 ! ---------- !----------------!----------------!

 LISTE DES NOMS DE VARIABLES D'ACCES:
                                      INST             DE TYPE  R

 LISTE DES NOMS DE PARAMETRES:
 ! ---------- !----------------!----------------!----------------!----------------!----------------!----------------!----------------!----------------!
 ! NUME_ORDRE !    CARAELEM    !    CHAMPMAT    !     EXCIT      !   ITER_GCPC    !    METHODE     !     MODELE     !     RENUM      !    STOCKAGE    !
 ! ---------- !----------------!----------------!----------------!----------------!----------------!----------------!----------------!----------------!
 !          1 !       K8       !       K8       !      K24       !       I        !      K16       !       K8       !      K16       !      K16       !
 ! ---------- !----------------!----------------!----------------!----------------!----------------!----------------!----------------!----------------!

 ======>

 STRUCTURE DU CONCEPT result   CALCULE POUR 1 NUMERO D'ORDRE

 LISTE DES NOMS SYMBOLIQUES:
 ! ---------- !----------------!
 ! NUME_ORDRE !   SIPO_NOEU    !
 ! ---------- !----------------!
 !          1 !     SIEF_R     !
 ! ---------- !----------------!

 LISTE DES NOMS DE VARIABLES D'ACCES:
                                      INST             DE TYPE  R

 LISTE DES NOMS DE PARAMETRES:
 ! ---------- !----------------!----------------!----------------!----------------!----------------!----------------!----------------!----------------!
 ! NUME_ORDRE !    CARAELEM    !    CHAMPMAT    !     EXCIT      !   ITER_GCPC    !    METHODE     !     MODELE     !     RENUM      !    STOCKAGE    !
 ! ---------- !----------------!----------------!----------------!----------------!----------------!----------------!----------------!----------------!
 !          1 !       K8       !       K8       !      K24       !       I        !      K16       !       K8       !      K16       !      K16       !
 ! ---------- !----------------!----------------!----------------!----------------!----------------!----------------!----------------!----------------!
 ---------------------------------------------------------------------------
 Concepts de la base: G
    Nom       Type                 Taille (Mo)         Nombre      Nombre de
                                                     d'objets       segments
    TOTAL                                27.70            194            349
  
    mesh       MAILLAGE_SDASTER           0.01             36             60
    model      MODELE_SDASTER             0.00              8             13
    section    CARA_ELEM                  0.02             22             42
    steel      MATER_SDASTER              0.00              5              5
    fieldmat   CHAM_MATER                 0.00              6             11
    load       CHAR_MECA                  0.01             28             53
    reslin     EVOL_ELAS                  0.03             25             34
    result     EVOL_ELAS                  0.02             19             25
    &FOZERO                               0.00              2              2
    &&_NUM_C                              0.00              1              1
    &CATA.AC                              0.00              2              4
    &CATA.CL                              0.86              1              3
    &CATA.GD                              0.14              4             11
    &CATA.ME                              0.20              2              4
    &CATA.OP                              0.32              4             19
    &CATA.PH                              0.00              1              1
    &CATA.PR                              0.00              2              4
    &CATA.TE                             26.07             17             42
    &CATA.TH                              0.01              2              4
    &CATA.TM                              0.01              7             11
 ---------------------------------------------------------------------------


     Nom de la base                          :  GLOBALE
     Nombre d'enregistrements utilisés       :  47
     Nombre d'enregistrements maximum        :  62914
     Longueur d'enregistrement (octets)      :  819200
     Nombre total d'accès en lecture         :  7
     Volume des accès en lecture             :          5.47 Mo.
     Nombre total d'accès en écriture        :  61
     Volume des accès en écriture            :         47.66 Mo.
     Nombre d'identificateurs utilisés       :  404
     Taille maximum du répertoire            :  2000
     Pourcentage d'utilisation du répertoire :  20 %


     Nom de la base                          :  VOLATILE
     Nombre d'enregistrements utilisés       :  3
     Nombre d'enregistrements maximum        :  62914
     Longueur d'enregistrement (octets)      :  819200
     Nombre total d'accès en lecture         :  0
     Volume des accès en lecture             :          0.00 Mo.
     Nombre total d'accès en écriture        :  4
     Volume des accès en écriture            :          3.12 Mo.
     Nombre d'identificateurs utilisés       :  827
     Taille maximum du répertoire            :  2000
     Pourcentage d'utilisation du répertoire :  41 %

 <FIN> Arrêt normal dans "FIN".

 La mémoire demandée au lancement est sous estimée, elle est de 2048.00 Mo.
 Le pic mémoire utilisée est de 2170.86 Mo.



     Nom de la base                          :  ELEMBASE
     Nombre d'enregistrements utilisés       :  44
     Nombre d'enregistrements maximum        :  512
     Longueur d'enregistrement (octets)      :  819200
     Nombre total d'accès en lecture         :  62
     Volume des accès en lecture             :         48.44 Mo.
     Nombre total d'accès en écriture        :  0
     Volume des accès en écriture            :          0.00 Mo.
     Nombre d'identificateurs utilisés       :  123
     Taille maximum du répertoire            :  300
     Pourcentage d'utilisation du répertoire :  41 %
  
 <I>       FERMETURE DES BASES EFFECTUEE
  
   STATISTIQUES CONCERNANT L'ALLOCATION DYNAMIQUE :
     TAILLE CUMULEE MAXIMUM            :                   45  Mo.
     TAILLE CUMULEE LIBEREE            :                    7  Mo.
     NOMBRE TOTAL D'ALLOCATIONS        :                 8577
     NOMBRE TOTAL DE LIBERATIONS       :                 8557
     APPELS AU MECANISME DE LIBERATION :                    0
     TAILLE MEMOIRE CUMULEE RECUPEREE  :                    0  Mo.
     VOLUME DES LECTURES               :                    0  Mo.
     VOLUME DES ECRITURES              :                    0  Mo.
  
   MEMOIRE JEVEUX MINIMALE REQUISE POUR L'EXECUTION :      34.07 Mo
     - IMPOSE DE NOMBREUX ACCES DISQUE
     - RALENTIT LA VITESSE D'EXECUTION
   MEMOIRE JEVEUX OPTIMALE REQUISE POUR L'EXECUTION :      44.66 Mo
     - LIMITE LES ACCES DISQUE
     - AMELIORE LA VITESSE D'EXECUTION
   MAXIMUM DE MEMOIRE UTILISEE PAR LE PROCESSUS     :    2170.86 Mo
     - COMPREND LA MEMOIRE CONSOMMEE PAR  JEVEUX, 
       LE SUPERVISEUR PYTHON, LES LIBRAIRIES EXTERNES
  
 <I>       FIN D'EXECUTION LE : LU-11-MARS-2019 14:13:17


  <I> Informations sur les temps d'exécution
      Temps cpu user total                    2.51 s
      Temps cpu systeme total                 4.38 s
      Temps elapsed total                     1.12 s
      Temps restant                         808.88 s


  La signature de la base sauvegardée est (à l'adresse 0) :
    fc0407817966d2eb2c5f4c60602d9514b5a03df0

 ********************************************************************************
 * COMMAND                  :       USER :     SYSTEM :   USER+SYS :    ELAPSED *
 ********************************************************************************
 * init (jdc)               :       0.60 :       0.12 :       0.72 :       0.72 *
 *  . compile               :       0.01 :       0.00 :       0.01 :       0.01 *
 *  . exec_compile          :       0.06 :       0.01 :       0.07 :       0.07 *
 *  . report                :       0.00 :       0.00 :       0.00 :       0.01 *
 *  . build                 :       0.00 :       0.00 :       0.00 :       0.00 *
 * DEBUT                    :       0.03 :       0.08 :       0.11 :       0.10 *
 * LIRE_MAILLAGE            :       0.01 :       0.00 :       0.01 :       0.02 *
 * AFFE_MODELE              :       0.05 :       0.20 :       0.25 :       0.01 *
 * AFFE_CARA_ELEM           :       0.19 :       0.59 :       0.78 :       0.03 *
 * DEFI_MATERIAU            :       0.04 :       0.13 :       0.17 :       0.00 *
 * AFFE_MATERIAU            :       0.13 :       0.38 :       0.51 :       0.02 *
 * AFFE_CHAR_MECA           :       0.09 :       0.33 :       0.42 :       0.01 *
 * MECA_STATIQUE            :       0.96 :       1.41 :       2.37 :       0.07 *
 * CALC_CHAMP               :       0.02 :       0.01 :       0.03 :       0.01 *
 * IMPR_RESU                :       0.17 :       0.37 :       0.54 :       0.05 *
 * FIN                      :       0.13 :       0.44 :       0.57 :       0.06 *
 *  . part Superviseur      :       0.83 :       0.89 :       1.72 :       0.85 *
 *  . part Fortran          :       1.68 :       3.47 :       5.15 :       0.27 *
 ********************************************************************************
 * TOTAL_JOB                :       2.51 :       4.38 :       6.89 :       1.12 *
 ********************************************************************************

EXECUTION_CODE_ASTER_EXIT_52601=0
