DEBUT()


mesh = LIRE_MAILLAGE(FORMAT='MED', UNITE=20)

model = AFFE_MODELE(
    AFFE=_F(MODELISATION=('POU_D_T', ), PHENOMENE='MECANIQUE', TOUT='OUI'),
    MAILLAGE=mesh
)

section = AFFE_CARA_ELEM(
    MODELE=model,
    POUTRE=_F(
        CARA=('R', ), GROUP_MA=('bar', ), SECTION='CERCLE', VALE=(25.0, )
    )
)

steel = DEFI_MATERIAU(ELAS=_F(E=2100000.0, NU=0.3))

fieldmat = AFFE_MATERIAU(
    AFFE=_F(MATER=(steel, ), TOUT='OUI'), MAILLAGE=mesh, MODELE=model
)

load = AFFE_CHAR_MECA(
    DDL_IMPO=_F(GROUP_NO=('fix', ), LIAISON='ENCASTRE'),
    FORCE_NODALE=_F(FX=100000.0, GROUP_NO=('load', )),
    MODELE=model
)

reslin = MECA_STATIQUE(
    CARA_ELEM=section,
    CHAM_MATER=fieldmat,
    EXCIT=_F(CHARGE=load),
    MODELE=model,
    OPTION='SIEF_ELGA'
)

result = CALC_CHAMP(
    CARA_ELEM=section,
    CHAM_MATER=fieldmat,
    CONTRAINTE=('SIPO_NOEU', ),
    MODELE=model,
    RESULTAT=reslin,
    TOUT_ORDRE='OUI'
)

IMPR_RESU(
    FORMAT='MED',
    RESU=(
        _F(MAILLAGE=mesh, RESULTAT=result), _F(MAILLAGE=mesh, RESULTAT=reslin)
    ),
    UNITE=80
)

FIN()