DEBUT()


mesh = LIRE_MAILLAGE(FORMAT='MED', UNITE=20)

model = AFFE_MODELE(
    AFFE=_F(MODELISATION=('3D', ), PHENOMENE='MECANIQUE', TOUT='OUI'),
    MAILLAGE=mesh
)

steel = DEFI_MATERIAU(ELAS=_F(E=210000.0, NU=0.3))

fieldmat = AFFE_MATERIAU(AFFE=_F(MATER=(steel, ), TOUT='OUI'), MODELE=model)

BC = AFFE_CHAR_MECA(
    DDL_IMPO=_F(GROUP_MA=('fix', ), LIAISON='ENCASTRE'), MODELE=model
)

load0 = AFFE_CHAR_MECA(
    FORCE_FACE=_F(FZ=10000.0, GROUP_MA=('load', )), MODELE=model
)

reslin = MECA_STATIQUE(
    CHAM_MATER=fieldmat, EXCIT=(_F(CHARGE=BC), _F(CHARGE=load0)), MODELE=model
)

IMPR_RESU(FORMAT='MED', RESU=_F(MAILLAGE=mesh, RESULTAT=reslin), UNITE=2)

FIN()